Version 4.1
SHEET 1 880 680
WIRE -416 0 -416 -48
WIRE 48 0 32 0
WIRE 448 0 128 0
WIRE -416 112 -416 80
WIRE -416 112 -512 112
WIRE -512 144 -512 112
WIRE -416 160 -416 112
WIRE 448 160 448 0
WIRE 448 160 336 160
WIRE -64 176 -128 176
WIRE 32 176 32 0
WIRE 32 176 16 176
WIRE 128 176 32 176
WIRE -416 272 -416 240
WIRE -416 400 -416 384
WIRE -352 400 -416 400
WIRE -416 432 -416 400
WIRE -416 576 -416 512
WIRE -368 576 -416 576
FLAG -416 -48 Vcc
FLAG -416 272 Vss
FLAG -512 144 0
FLAG -416 384 V+
FLAG -352 400 0
FLAG -128 176 vIN
FLAG -368 576 vIN
SYMBOL AMPOPBACANA 240 160 R0
SYMATTR InstName X1
SYMBOL res 32 160 R90
WINDOW 0 0 56 VBottom 2
WINDOW 3 32 56 VTop 2
SYMATTR InstName R1
SYMATTR Value 1k
SYMBOL res 144 -16 R90
WINDOW 0 0 56 VBottom 2
WINDOW 3 32 56 VTop 2
SYMATTR InstName R2
SYMATTR Value 98k
SYMBOL voltage -416 -16 R0
WINDOW 123 0 0 Left 0
WINDOW 39 0 0 Left 0
SYMATTR InstName V1
SYMATTR Value 7.5
SYMBOL voltage -416 144 R0
WINDOW 123 0 0 Left 0
WINDOW 39 0 0 Left 0
SYMATTR InstName V2
SYMATTR Value 7.5
SYMBOL voltage -416 416 R0
WINDOW 3 24 152 Left 2
WINDOW 123 24 124 Left 2
WINDOW 39 0 0 Left 0
SYMATTR Value SINE(-93.39u 1u)
SYMATTR Value2 AC 1
SYMATTR InstName V3
TEXT -264 560 Left 2 !.ac dec 10 1 1Meg
