Version 4.1
SHEET 1 880 680
WIRE -272 80 -272 32
WIRE 112 112 32 112
WIRE 352 144 288 144
WIRE -48 176 -96 176
WIRE 80 176 32 176
WIRE 112 176 80 176
WIRE -272 192 -272 160
WIRE -272 192 -368 192
WIRE -368 224 -368 192
WIRE -96 224 -96 176
WIRE -272 240 -272 192
WIRE 80 336 80 176
WIRE 160 336 80 336
WIRE 352 336 352 144
WIRE 352 336 240 336
WIRE -272 352 -272 320
WIRE -96 400 -96 304
FLAG -272 32 Vcc
FLAG -272 352 Vss
FLAG -368 224 0
FLAG -96 400 0
FLAG 32 112 0
FLAG 208 208 Vss
FLAG 208 80 Vcc
SYMBOL ICLE7041 320 144 R0
SYMATTR InstName X1
SYMBOL voltage -272 64 R0
WINDOW 123 0 0 Left 0
WINDOW 39 0 0 Left 0
SYMATTR InstName V1
SYMATTR Value 7.5
SYMBOL voltage -272 224 R0
WINDOW 123 0 0 Left 0
WINDOW 39 0 0 Left 0
SYMATTR InstName V2
SYMATTR Value 7.5
SYMBOL res 48 160 R90
WINDOW 0 0 56 VBottom 2
WINDOW 3 32 56 VTop 2
SYMATTR InstName R1
SYMATTR Value 1k
SYMBOL res 256 320 R90
WINDOW 0 0 56 VBottom 2
WINDOW 3 32 56 VTop 2
SYMATTR InstName R2
SYMATTR Value 98k
SYMBOL voltage -96 208 R0
WINDOW 3 23 152 Left 2
WINDOW 123 24 124 Left 2
WINDOW 39 0 0 Left 0
SYMATTR Value SINE(-87.59u)
SYMATTR Value2 AC 1
SYMATTR InstName V3
TEXT -136 0 Left 2 !.ac dec 1 1 1G
